
 OpenBabel10211616423D

  4  3  0  0  0  0  0  0  0  0999 V2000
    0.9675   -0.0980    0.0938 N   0  0  0  0  0  0  0  0  0  0  0  0
    1.9848   -0.0636    0.0466 H   0  0  0  0  0  0  0  0  0  0  0  0
    0.6559   -0.4455   -0.8120 H   0  0  0  0  0  0  0  0  0  0  0  0
    0.6559    0.8709    0.1452 H   0  0  0  0  0  0  0  0  0  0  0  0
  1  2  1  0  0  0  0
  1  3  1  0  0  0  0
  1  4  1  0  0  0  0
M  END
