Molecule Name
  CHEMDOOD10211612393D 0   0.00000     0.00000     0
[Insert Comment Here]
  3  2  0  0  0  0  0  0  0  0  2 V2000
    0.0000   -0.5000    0.0000 N   0  5  0  0  0  0  0  0  0  0  0  0
    1.7320    0.5000    0.0000 O   0  5  0  0  0  0  0  0  0  0  0  0
   -1.7320    0.5000    0.0000 O   0  5  0  0  0  0  0  0  0  0  0  0
  1  2  1  0  0  0  0
  1  3  1  0  0  0  0
M  CHG  3   1  -1   2  -1   3  -1
M  END
