Molecule Name
  CHEMDOOD10211612353D 0   0.00000     0.00000     0
[Insert Comment Here]
  4  3  0  0  0  0  0  0  0  0  2 V2000
    0.0000    0.5000    0.0000 N   0  3  0  0  0  0  0  0  0  0  0  0
    1.7320    1.5000    0.0000 O   0  5  0  0  0  0  0  0  0  0  0  0
   -1.7320    1.5000    0.0000 O   0  5  0  0  0  0  0  0  0  0  0  0
    0.0000   -1.5000    0.0000 O   0  5  0  0  0  0  0  0  0  0  0  0
  1  2  1  0  0  0  0
  1  3  1  0  0  0  0
  1  4  1  0  0  0  0
M  CHG  4   1   1   2  -1   3  -1   4  -1
M  END
