
 OpenBabel10211616453D

  6  5  0  0  0  0  0  0  0  0999 V2000
    0.8128    0.0266    0.0690 Cl  0  0  0  0  0  0  0  0  0  0  0  0
    3.1574    0.0266    0.0690 P   0  0  0  0  0  0  0  0  0  0  0  0
    3.1574   -0.9025   -1.6825 Cl  0  0  0  0  0  0  0  0  0  0  0  0
    3.1574    2.0079    0.1401 Cl  0  0  0  0  0  0  0  0  0  0  0  0
    3.1574   -1.0257    1.7493 Cl  0  0  0  0  0  0  0  0  0  0  0  0
    5.5019    0.0266    0.0690 Cl  0  0  0  0  0  0  0  0  0  0  0  0
  1  2  1  0  0  0  0
  2  3  1  0  0  0  0
  2  4  1  0  0  0  0
  2  5  1  0  0  0  0
  2  6  1  0  0  0  0
M  END
