Molecule Name
  CHEMDOOD10211612493D 0   0.00000     0.00000     0
[Insert Comment Here]
  5  4  0  0  0  0  0  0  0  0  1 V2000
    0.0000   -0.0000    0.0000 S   0  0  0  0  0  0  0  0  0  0  0  0
    0.8660    0.5000    0.0000 F   0  0  0  0  0  0  0  0  0  0  0  0
   -0.8660    0.5000    0.0000 F   0  0  0  0  0  0  0  0  0  0  0  0
    0.0000    0.0000   -1.0000 F   0  0  0  0  0  0  0  0  0  0  0  0
    0.0000    0.0000    1.0000 F   0  0  0  0  0  0  0  0  0  0  0  0
  1  2  1  0  0  0  0
  1  3  1  0  0  0  0
  1  4  1  0  0  0  0
  1  5  1  0  0  0  0
M  END