
 OpenBabel10211619513D

  5  4  0  0  0  0  0  0  0  0999 V2000
   -0.0000   -0.0000    0.0000 Xe  0  0  0  0  0  0  0  0  0  0  0  0
   -0.0000    1.2890   -1.4234 F   0  0  0  0  0  0  0  0  0  0  0  0
   -0.0000    1.4234    1.2889 F   0  0  0  0  0  0  0  0  0  0  0  0
   -0.0000   -1.2890    1.4234 F   0  0  0  0  0  0  0  0  0  0  0  0
   -0.0000   -1.4234   -1.2890 F   0  0  0  0  0  0  0  0  0  0  0  0
  1  2  1  0  0  0  0
  1  3  1  0  0  0  0
  1  4  1  0  0  0  0
  1  5  1  0  0  0  0
M  END
